@<TRIPOS>MOLECULE
ZINC12750049_A55016
57   58    1
SMALL
USER_CHARGES


@<TRIPOS>ATOM
      1 C1         11.4860  -14.7370   -2.2150 C.3       1 <1>        -0.1800 
      2 C2         10.0760  -15.0370   -1.6680 C.3       1 <1>         0.0000 
      3 C3         10.1390  -15.2570   -0.1380 C.3       1 <1>        -0.1800 
      4 C4          9.5400  -16.3400   -2.3000 C.3       1 <1>        -0.1800 
      5 C5          9.1480  -13.8480   -2.0120 C.2       1 <1>         0.5000 
      6 O1          8.3170  -13.9230   -2.9220 O.2       1 <1>        -0.5000 
      7 N1          9.2860  -12.7540   -1.2500 N.am      1 <1>        -0.5000 
      8 C6          8.4840  -11.5440   -1.3520 C.3       1 <1>         0.0800 
      9 C7          9.1560  -10.4250   -2.1690 C.2       1 <1>         0.5000 
     10 O2         10.2840  -10.6040   -2.6320 O.2       1 <1>        -0.5000 
     11 N2          8.4710   -9.2710   -2.3330 N.am      1 <1>        -0.1400 
     12 C8          7.1160   -9.0940   -1.8150 C.3       1 <1>        -0.1100 
     13 C9          8.9980   -8.1230   -3.0900 C.3       1 <1>         0.0650 
     14 C10         8.3630   -7.9310   -4.4620 C.ar      1 <1>        -0.1150 
     15 C11         7.2990   -8.7450   -4.9140 C.ar      1 <1>        -0.1150 
     16 C12         6.7350   -8.5290   -6.1730 C.ar      1 <1>        -0.1150 
     17 C13         7.2890   -7.5710   -7.0320 C.ar      1 <1>         0.1225 
     18 C14         8.3180   -6.7230   -6.5960 C.ar      1 <1>        -0.1150 
     19 C15         8.8350   -6.8930   -5.2970 C.ar      1 <1>        -0.1150 
     20 N3          6.8440   -7.5440   -8.4640 N.4       1 <1>         0.0475 
     21 C16         6.9300   -8.8800   -9.1000 C.3       1 <1>         0.1500 
     22 C17         6.6210   -8.7900  -10.5820 C.3       1 <1>        -0.1200 
     23 C18         5.2740   -8.1170  -10.8830 C.3       1 <1>        -0.1200 
     24 C19         5.1900   -6.7680  -10.1560 C.3       1 <1>        -0.1200 
     25 C20         5.5140   -6.9230   -8.6630 C.3       1 <1>         0.1500 
     26 HN1        10.0180  -12.7560   -0.5560 H         1 <1>         0.3000 
     27 H57         7.4900   -6.9680   -8.9840 H         1 <1>         0.2900 
     28 H11        11.4330  -14.5833   -3.2928 H         1 <1>         0.0000 
     29 H12        11.8772  -13.8378   -1.7391 H         1 <1>         0.0000 
     30 H13        12.1460  -15.5775   -2.0003 H         1 <1>         0.0000 
     31 H31         9.1390  -15.4684    0.2407 H         1 <1>         0.0000 
     32 H32        10.7956  -16.0988    0.0818 H         1 <1>         0.0000 
     33 H33        10.5268  -14.3591    0.3430 H         1 <1>         0.0000 
     34 H41         8.5433  -16.5496   -1.9116 H         1 <1>         0.0000 
     35 H42         9.4908  -16.2257   -3.3829 H         1 <1>         0.0000 
     36 H43        10.2070  -17.1657   -2.0523 H         1 <1>         0.0000 
     37 H61         8.2571  -11.1751   -0.3517 H         1 <1>         0.0000 
     38 H62         7.5186  -11.7864   -1.7963 H         1 <1>         0.0000 
     39 H81         6.7603   -8.0934   -2.0607 H         1 <1>         0.0000 
     40 H82         6.4549   -9.8347   -2.2648 H         1 <1>         0.0000 
     41 H83         7.1207   -9.2217   -0.7325 H         1 <1>         0.0000 
     42 H91        10.0769   -8.2296   -3.2031 H         1 <1>         0.0000 
     43 H92         8.8704   -7.2138   -2.5025 H         1 <1>         0.0000 
     44 H11         6.9200   -9.5368   -4.2849 H         1 <1>         0.0000 
     45 H12         5.8726   -9.1002   -6.4836 H         1 <1>         0.0000 
     46 H14         8.7004   -5.9558   -7.2530 H         1 <1>         0.0000 
     47 H15         9.6004   -6.2194   -4.9410 H         1 <1>         0.0000 
     48 H161        6.2211   -9.5559   -8.6218 H         1 <1>         0.0000 
     49 H162        7.9331   -9.2837   -8.9622 H         1 <1>         0.0000 
     50 H171        6.6305   -9.7903  -11.0150 H         1 <1>         0.0000 
     51 H172        7.4188   -8.2440  -11.0855 H         1 <1>         0.0000 
     52 H181        4.4625   -8.7621  -10.5462 H         1 <1>         0.0000 
     53 H182        5.1800   -7.9570  -11.9571 H         1 <1>         0.0000 
     54 H191        4.1868   -6.3568  -10.2688 H         1 <1>         0.0000 
     55 H192        5.8917   -6.0675  -10.6088 H         1 <1>         0.0000 
     56 H201        5.4954   -5.9440   -8.1841 H         1 <1>         0.0000 
     57 H202        4.7509   -7.5398   -8.1883 H         1 <1>         0.0000 
@<TRIPOS>BOND
     1    1    2 1    
     2    1   28 1    
     3    1   29 1    
     4    1   30 1    
     5    2    3 1    
     6    2    4 1    
     7    2    5 1    
     8    3   31 1    
     9    3   32 1    
    10    3   33 1    
    11    4   34 1    
    12    4   35 1    
    13    4   36 1    
    14    5    6 2    
    15    5    7 am   BACKBONE|DICT|INTERRES
    16    7    8 1    
    17    7   26 1    
    18    8    9 1    
    19    8   37 1    
    20    8   38 1    
    21    9   10 2    
    22    9   11 am   BACKBONE|DICT|INTERRES
    23   11   12 1    
    24   11   13 1    
    25   12   39 1    
    26   12   40 1    
    27   12   41 1    
    28   13   14 1    
    29   13   42 1    
    30   13   43 1    
    31   14   15 ar   
    32   14   19 ar   
    33   15   16 ar   
    34   15   44 1    
    35   16   17 ar   
    36   16   45 1    
    37   17   18 ar   
    38   17   20 1    
    39   18   19 ar   
    40   18   46 1    
    41   19   47 1    
    42   20   21 1    
    43   20   25 1    
    44   20   27 1    
    45   21   22 1    
    46   21   48 1    
    47   21   49 1    
    48   22   23 1    
    49   22   50 1    
    50   22   51 1    
    51   23   24 1    
    52   23   52 1    
    53   23   53 1    
    54   24   25 1    
    55   24   54 1    
    56   24   55 1    
    57   25   56 1    
    58   25   57 1    
@<TRIPOS>SUBSTRUCTURE
     1 <1>         1 GROUP             0       ****    0 ROOT    
