@<TRIPOS>MOLECULE
ZINC69842642 - A55007
25   26    2
SMALL
USER_CHARGES


@<TRIPOS>ATOM
      1 C1          9.1295   -6.1499   -7.9437 C.3       1 <1>        -0.0650 
      2 C2          8.2958   -6.9692   -6.9691 C.ar      1 <1>        -0.1150 
      3 C3          8.7911   -7.1242   -5.6546 C.ar      1 <1>        -0.1150 
      4 C4          8.0781   -7.8675   -4.6905 C.ar      1 <1>        -0.1150 
      5 C5          6.8392   -8.4442   -5.0457 C.ar      1 <1>        -0.1150 
      6 C6          6.3391   -8.2937   -6.3531 C.ar      1 <1>        -0.1150 
      7 C7          7.0607   -7.5730   -7.3215 C.ar      1 <1>         0.1225 
      8 C8          5.6398   -6.3642   -8.8896 C.3       1 <1>         0.0900 
      9 C9          7.1062   -8.3287   -9.6416 C.3       1 <1>         0.0900 
     10 C10         8.6530   -8.0132   -3.2884 C.3       1 <1>         0.1950 
     11 N2          8.1951   -9.1990   -2.5717 N.am      1 <1>        -0.5000 
     12 C11         8.9035  -10.3224   -2.4145 C.2       1 <1>         0.5000 
     13 O1         10.0410  -10.4610   -2.8591 O.2       1 <1>        -0.5000 
     14 C12         8.2365  -11.4235   -1.5788 C.3       1 <1>        -0.0500 
     15 N3          9.1211  -12.5758   -1.3432 N.am      1 <1>        -0.1400 
     16 C13         9.9387  -12.4766   -0.1254 C.3       1 <1>        -0.1100 
     17 C14         9.1059  -13.6324   -2.1956 C.2       1 <1>         0.5055 
     18 O2          8.2456  -13.7462   -3.0700 O.2       1 <1>        -0.5000 
     19 C15        10.1382  -14.6913   -2.0645 C.2       1 <1>        -0.0692 
     20 C16        11.5035  -14.6568   -1.9118 C         1 <1>        -0.0738 
     21 C17        12.0981  -15.9528   -1.8398 C         1 <1>        -0.0738 
     22 C18        11.1834  -16.9629   -1.9800 C         1 <1>        -0.3255 
     23 S1          9.5753  -16.3369   -2.2210 S.3       1 <1>         0.0328 
     24 HN2         7.2748   -9.1622   -2.1649 H         1 <1>         0.3000 
     25 N25         6.5229   -7.4851   -8.6091 N.pl3     2 ****       -0.3216 
@<TRIPOS>BOND
     1    1    2 1    
     2    2    3 ar   
     3    2    7 ar   
     4    3    4 ar   
     5    4    5 ar   
     6    4   10 1    
     7    5    6 ar   
     8    6    7 ar   
     9    7   25 1    
    10    8   25 1    
    11    9   25 1    
    12   10   11 1    
    13   11   12 am   BACKBONE|DICT|INTERRES
    14   11   24 1    
    15   12   13 2    
    16   12   14 1    
    17   14   15 1    
    18   15   16 1    
    19   15   17 am   BACKBONE|DICT|INTERRES
    20   17   18 2    
    21   17   19 1    
    22   19   20 2    
    23   19   23 1    
    24   20   21 1    
    25   21   22 2    
    26   22   23 1    
@<TRIPOS>SUBSTRUCTURE
     1 <1>         1 GROUP             0       ****    0 ROOT    
     2 ****       25 GROUP             0       ****    0 ROOT    
