@<TRIPOS>MOLECULE
ZINC51476391 - A55013
26   28    1
SMALL
USER_CHARGES


@<TRIPOS>ATOM
      1 C1         10.0360   -9.7150   -1.8300 C.3       1 <1>         0.0900 
      2 N1          9.1100   -9.7350   -2.9860 N.4       1 <1>        -0.1000 
      3 C2          8.2950   -8.4880   -3.0580 C.3       1 <1>         0.2650 
      4 C3          7.9180   -8.1150   -4.4860 C.ar      1 <1>        -0.1150 
      5 C4          8.7030   -7.2020   -5.2190 C.ar      1 <1>        -0.1150 
      6 C5          8.3450   -6.8500   -6.5370 C.ar      1 <1>        -0.1150 
      7 C6          7.2040   -7.4110   -7.1580 C.ar      1 <1>         0.2100 
      8 C7          6.4090   -8.2930   -6.3980 C.ar      1 <1>        -0.1150 
      9 C8          6.7600   -8.6460   -5.0850 C.ar      1 <1>        -0.1150 
     10 N2          6.8680   -7.1450   -8.5030 N.pl3     1 <1>        -0.6300 
     11 C9          5.5010   -6.7100   -8.7930 C.3       1 <1>         0.0900 
     12 C10         5.1190   -6.9480  -10.2610 C.3       1 <1>        -0.1200 
     13 C11         6.1660   -6.3660  -11.2170 C.3       1 <1>        -0.1200 
     14 C12         7.5430   -6.9320  -10.8560 C.3       1 <1>        -0.1200 
     15 C13         7.9020   -6.6240   -9.3950 C.3       1 <1>         0.0900 
     16 C14         8.2790  -10.9750   -3.0560 C.3       1 <1>         0.1500 
     17 C15         9.0670  -12.3070   -3.2130 C.3       1 <1>         0.2050 
     18 C16         9.2740  -13.0680   -1.8820 C.3       1 <1>         0.0025 
     19 N3          9.8980  -14.3740   -2.0410 N.pl3     1 <1>         0.0695 
     20 C17        11.2430  -14.6800   -2.0540 C.ar      1 <1>         0.0360 
     21 C18        11.3520  -16.0350   -2.1810 C.ar      1 <1>        -0.3200 
     22 C19        10.0030  -16.4800   -2.2440 C.ar      1 <1>         0.2660 
     23 N4          9.1330  -15.4840   -2.1770 N.2       1 <1>        -0.5310 
     24 O1          8.3160  -13.1450   -4.0710 O.3       1 <1>        -0.6830 
     25 HO1         8.9000  -13.8290   -4.3980 H         1 <1>         0.4180 
     26 H53         9.6910   -9.7190   -3.8130 H         1 <1>         0.2900 
@<TRIPOS>BOND
     1    1    2 1    
     2    2    3 1    
     3    2   16 1    
     4    2   26 1    
     5    3    4 1    
     6    4    5 ar   
     7    4    9 ar   
     8    5    6 ar   
     9    6    7 ar   
    10    7    8 ar   
    11    7   10 1    
    12    8    9 ar   
    13   10   11 1    
    14   10   15 1    
    15   11   12 1    
    16   12   13 1    
    17   13   14 1    
    18   14   15 1    
    19   16   17 1    
    20   17   18 1    
    21   17   24 1    
    22   18   19 1    
    23   19   20 ar   
    24   19   23 ar   
    25   20   21 ar   
    26   21   22 ar   
    27   22   23 ar   
    28   24   25 1    
@<TRIPOS>SUBSTRUCTURE
     1 <1>         1 GROUP             0       ****    0 ROOT    
