@<TRIPOS>MOLECULE
ZINC89669506 - A55003
22   22    1
SMALL
USER_CHARGES


@<TRIPOS>ATOM
      1 C1          6.2820   -7.7620   -7.0080 C.3       1 <1>        -0.0650 
      2 C2          7.2220   -7.8940   -5.8290 C.ar      1 <1>        -0.1150 
      3 C3          8.3160   -7.0210   -5.6910 C.ar      1 <1>        -0.1150 
      4 C4          9.1760   -7.1450   -4.5820 C.ar      1 <1>        -0.1150 
      5 C5          8.9480   -8.1330   -3.6090 C.ar      1 <1>        -0.1150 
      6 C6          7.8600   -9.0200   -3.7460 C.ar      1 <1>        -0.1150 
      7 C7          7.0020   -8.8920   -4.8590 C.ar      1 <1>        -0.1150 
      8 C8          7.6040  -10.0830   -2.6920 C.3       1 <1>         0.1950 
      9 N1          8.8240  -10.8020   -2.3330 N.am      1 <1>        -0.5000 
     10 C9          9.1090  -12.0940   -2.5580 C.2       1 <1>         0.5000 
     11 O1          8.3160  -12.9020   -3.0460 O.2       1 <1>        -0.5000 
     12 C10        10.5240  -12.5260   -2.1520 C.3       1 <1>         0.0025 
     13 N2         10.7450  -14.0010   -2.0810 N.4       1 <1>         0.0475 
     14 C11        10.0120  -14.6500   -0.9500 C.3       1 <1>         0.1500 
     15 C12         9.3870  -16.0030   -1.3420 C.3       1 <1>         0.1450 
     16 O2          8.7160  -15.8980   -2.5820 O.3       1 <1>        -0.6830 
     17 C13        12.1990  -14.3510   -2.1880 C.3       1 <1>         0.2100 
     18 C14        13.0760  -13.7010   -1.0950 C.3       1 <1>        -0.1800 
     19 C15        12.4640  -15.8650   -2.2600 C.3       1 <1>        -0.1800 
     20 HN1         9.5510  -10.2330   -1.9230 H         1 <1>         0.3000 
     21 HO2         8.1230  -15.1570   -2.5510 H         1 <1>         0.4180 
     22 H44        10.3060  -14.3660   -2.9200 H         1 <1>         0.2900 
@<TRIPOS>BOND
     1    1    2 1    
     2    2    3 ar   
     3    2    7 ar   
     4    3    4 ar   
     5    4    5 ar   
     6    5    6 ar   
     7    6    7 ar   
     8    6    8 1    
     9    8    9 1    
    10    9   10 am   BACKBONE|DICT|INTERRES
    11    9   20 1    
    12   10   11 2    
    13   10   12 1    
    14   12   13 1    
    15   13   14 1    
    16   13   17 1    
    17   13   22 1    
    18   14   15 1    
    19   15   16 1    
    20   16   21 1    
    21   17   18 1    
    22   17   19 1    
@<TRIPOS>SUBSTRUCTURE
     1 <1>         1 GROUP             0       ****    0 ROOT    
