@<TRIPOS>MOLECULE
ZINC23747932 - A55004
27   28    1
SMALL
USER_CHARGES


@<TRIPOS>ATOM
      1 C1         12.2610  -15.8880   -1.5490 C.3       1 <1>        -0.1100 
      2 N1         11.0160  -16.3290   -2.1830 N.am      1 <1>        -0.1400 
      3 C2         11.1660  -17.5190   -3.0190 C.3       1 <1>        -0.1100 
      4 C3          9.8190  -15.7320   -1.9770 C.2       1 <1>         0.5000 
      5 O1          8.7970  -16.0700   -2.5820 O.2       1 <1>        -0.5000 
      6 C4          9.7040  -14.6660   -0.8710 C.3       1 <1>         0.0800 
      7 N2          9.9260  -13.2720   -1.2630 N.am      1 <1>        -0.5000 
      8 C5          9.2030  -12.5250   -2.1120 C.2       1 <1>         0.5000 
      9 O2          8.3160  -12.9760   -2.8380 O.2       1 <1>        -0.5000 
     10 C6          9.5230  -11.0250   -2.0920 C.3       1 <1>         0.0800 
     11 N3          8.9390  -10.2980   -3.2140 N.am      1 <1>        -0.5000 
     12 C7          8.6310   -8.9910   -3.2120 C.2       1 <1>         0.6150 
     13 O3          8.6940   -8.2880   -2.2060 O.2       1 <1>        -0.5000 
     14 C8          8.2620   -8.4260   -4.5560 C.ar      1 <1>        -0.1150 
     15 C9          8.7160   -7.1550   -4.9750 C.ar      1 <1>        -0.1150 
     16 C10         8.3720   -6.6520   -6.2500 C.ar      1 <1>        -0.1150 
     17 C11         7.5780   -7.4110   -7.1390 C.ar      1 <1>         0.0000 
     18 C12         7.1160   -8.6660   -6.7010 C.ar      1 <1>        -0.1150 
     19 C13         7.4430   -9.1640   -5.4290 C.ar      1 <1>        -0.1150 
     20 C14         7.2330   -6.9420   -8.4950 C.ar      1 <1>         0.0000 
     21 C15         5.9160   -7.0940   -8.9860 C.ar      1 <1>        -0.1150 
     22 C16         5.5710   -6.6780  -10.2860 C.ar      1 <1>        -0.1150 
     23 C17         6.5490   -6.1110  -11.1230 C.ar      1 <1>        -0.1150 
     24 C18         7.8650   -5.9450  -10.6490 C.ar      1 <1>        -0.1150 
     25 C19         8.2000   -6.3450   -9.3390 C.ar      1 <1>        -0.1150 
     26 HN2        10.6480  -12.7880   -0.7480 H         1 <1>         0.3000 
     27 HN3         8.8370  -10.8100   -4.0780 H         1 <1>         0.3000 
@<TRIPOS>BOND
     1    1    2 1    
     2    2    3 1    
     3    2    4 am   BACKBONE|DICT|INTERRES
     4    4    5 2    
     5    4    6 1    
     6    6    7 1    
     7    7    8 am   BACKBONE|DICT|INTERRES
     8    7   26 1    
     9    8    9 2    
    10    8   10 1    
    11   10   11 1    
    12   11   12 am   BACKBONE|DICT|INTERRES
    13   11   27 1    
    14   12   13 2    
    15   12   14 1    
    16   14   15 ar   
    17   14   19 ar   
    18   15   16 ar   
    19   16   17 ar   
    20   17   18 ar   
    21   17   20 1    
    22   18   19 ar   
    23   20   21 ar   
    24   20   25 ar   
    25   21   22 ar   
    26   22   23 ar   
    27   23   24 ar   
    28   24   25 ar   
@<TRIPOS>SUBSTRUCTURE
     1 <1>         1 GROUP             0       ****    0 ROOT    
